AeroDyn 
Axell 
Boussinesq
Burggraf
CFL
CMake
CTest
Ekman
Euler
Exascale
Fortran
Joukowsky
Jupyter
Karman
Liungman
MPI
Menter 
Moeng
Monin
Nalu
Navier
Neumann
Nicolson
Obukhov
Poiseuille
Raphson
Shubin
viscosities
Zalesak
ABL
adaptively
adaptivity
advected
advection
aero
amr
amrex
anelastic
anisotropic
azimuthal
bicgcg
bicgstab
bool
cartesian
centerline
cgbicg
chk
chkp
cmake
codebase
concretization
concretize
concretized
concretizing
conda
convecting
cpp
dat
datafile
dimensionalize
discretization
discretized
discretizes
doxygen
dropdown
dt
enstrophy
exawind
executables
fidelities
fllc
freestream
frontend
geostrophic
Godunov
hexahedral
homebrew
hydrostatic
hypre
incflo
incompressible
incompressibility
initializer
initializers
inviscid
iteratively
Kosovic
levelset
lidar
mol
mesoscale
microscale
multifidelity
multigrid
multiphase
namespace
namespaces
netcdf
normals
numpy
ok
openfast
overset
paraview
perturbational
petsc
piecewise
plotfile
plotfiles
plt
postprocessing
Prandtl
pre
priori
proj
reStructuredText
regrid
regridding
repo
roadmap
rosco
Smagorinsky
solvability
spack
spacings
spanwise
spinup
src
subgrid
submodule
submodules
teardown
timestep
timestepping
timesteps
tke
vel
vof
von
vorticity
walkthrough
weno
yaml
yt
